Version 4
SHEET 1 1200 680
WIRE -32 144 -128 144
WIRE 176 144 -32 144
WIRE 544 144 464 144
WIRE 640 144 544 144
WIRE 704 144 640 144
WIRE 720 144 704 144
WIRE -128 160 -128 144
WIRE -32 160 -32 144
WIRE 544 160 544 144
WIRE 176 176 96 176
WIRE 640 176 640 144
WIRE 720 176 720 144
WIRE 176 208 144 208
WIRE 144 240 144 208
WIRE 176 240 144 240
WIRE 496 240 464 240
WIRE 496 256 496 240
WIRE 544 256 544 240
WIRE 544 256 496 256
WIRE 640 256 640 240
WIRE 640 256 544 256
WIRE -128 272 -128 240
WIRE -32 272 -32 240
WIRE 96 272 96 176
WIRE 96 272 -32 272
WIRE 144 272 144 240
WIRE 544 272 544 256
WIRE 720 272 720 240
WIRE 544 384 544 352
WIRE 32 416 0 416
WIRE 96 416 32 416
WIRE 208 416 176 416
WIRE 240 416 208 416
WIRE 352 416 320 416
WIRE 400 416 352 416
WIRE 496 416 496 256
WIRE 496 416 480 416
WIRE 0 432 0 416
WIRE 208 432 208 416
WIRE 352 432 352 416
WIRE 208 512 208 496
WIRE 352 512 352 496
WIRE 0 544 0 512
FLAG 144 272 0
FLAG -128 272 0
FLAG 544 384 0
FLAG 720 272 0
FLAG 704 144 out
FLAG 208 512 0
FLAG 352 512 0
FLAG 0 544 0
FLAG 32 416 Vin
SYMBOL LP2951 320 192 R0
SYMATTR InstName U1
SYMBOL voltage -128 144 R0
WINDOW 123 0 0 Left 2
WINDOW 39 0 0 Left 2
SYMATTR InstName V1
SYMATTR Value 5.5
SYMBOL res 528 144 R0
SYMATTR InstName R1
SYMATTR Value 100k
SYMBOL res 528 256 R0
SYMATTR InstName R2
SYMATTR Value 47k
SYMBOL cap 704 176 R0
SYMATTR InstName C1
SYMATTR Value 10µ
SYMBOL cap 624 176 R0
SYMATTR InstName C2
SYMATTR Value 10n
SYMBOL res -48 144 R0
SYMATTR InstName R3
SYMATTR Value 10k
SYMBOL res 192 400 R90
WINDOW 0 0 56 VBottom 2
WINDOW 3 32 56 VTop 2
SYMATTR InstName R4
SYMATTR Value 5k6
SYMBOL res 336 400 R90
WINDOW 0 0 56 VBottom 2
WINDOW 3 32 56 VTop 2
SYMATTR InstName R5
SYMATTR Value 47k
SYMBOL cap 192 432 R0
SYMATTR InstName C3
SYMATTR Value 1µ
SYMBOL cap 336 432 R0
SYMATTR InstName C4
SYMATTR Value 100n
SYMBOL voltage 0 416 R0
WINDOW 123 0 0 Left 2
WINDOW 39 0 0 Left 2
SYMATTR InstName V2
SYMATTR Value PULSE(0 3.3 0 1)
SYMBOL res 496 400 R90
WINDOW 0 0 56 VBottom 2
WINDOW 3 32 56 VTop 2
SYMATTR InstName R6
SYMATTR Value 47k
TEXT 588 480 Left 2 !.tran 2
TEXT 600 528 Left 2 !.meas TRAN duty50 FIND V(Vin)/3.3 WHEN V(out)=5.0\n.meas TRAN duty33 FIND V(Vin)/3.3 WHEN V(out)=3.3\n.meas TRAN duty25 FIND V(Vin)/3.3 WHEN V(out)=2.5\n.meas TRAN duty18 FIND V(Vin)/3.3 WHEN V(out)=1.8
